# generated using pymatgen
data_FeAs
_symmetry_space_group_name_H-M   'P 1'
_cell_length_a   3.71983600
_cell_length_b   3.70440674
_cell_length_c   3.72428203
_cell_angle_alpha   60.00357437
_cell_angle_beta   60.09403992
_cell_angle_gamma   60.66929245
_symmetry_Int_Tables_number   1
_chemical_formula_structural   FeAs
_chemical_formula_sum   'Fe1 As1'
_cell_volume   36.49567910
_cell_formula_units_Z   1
loop_
 _symmetry_equiv_pos_site_id
 _symmetry_equiv_pos_as_xyz
  1  'x, y, z'
loop_
 _atom_site_type_symbol
 _atom_site_label
 _atom_site_symmetry_multiplicity
 _atom_site_fract_x
 _atom_site_fract_y
 _atom_site_fract_z
 _atom_site_occupancy
  Fe  Fe0  1  0.05303844  0.97922301  0.18018241  1
  As  As1  1  0.80233955  0.72831130  0.92984581  1
