# generated using pymatgen
data_B2O3
_symmetry_space_group_name_H-M   'P 1'
_cell_length_a   3.76611185
_cell_length_b   4.26732588
_cell_length_c   4.12780571
_cell_angle_alpha   116.77011871
_cell_angle_beta   94.10788727
_cell_angle_gamma   115.60880280
_symmetry_Int_Tables_number   1
_chemical_formula_structural   B2O3
_chemical_formula_sum   'B2 O3'
_cell_volume   50.40395062
_cell_formula_units_Z   1
loop_
 _symmetry_equiv_pos_site_id
 _symmetry_equiv_pos_as_xyz
  1  'x, y, z'
loop_
 _atom_site_type_symbol
 _atom_site_label
 _atom_site_symmetry_multiplicity
 _atom_site_fract_x
 _atom_site_fract_y
 _atom_site_fract_z
 _atom_site_occupancy
  B  B0  1  0.12210350  0.62603104  0.46834552  1
  B  B1  1  0.45616785  0.28620836  0.79238510  1
  O  O2  1  0.85301232  0.45724577  0.11766616  1
  O  O3  1  0.15197130  0.94928426  0.70255244  1
  O  O4  1  0.36549121  0.46061903  0.59564126  1
